$ NASTRAN input file created by the MSC MSC.Nastran input file
$ translator ( MSC.Patran 13.1.089 ) on November  09, 2007 at 09:38:05.
$ Direct Text Input for Nastran System Cell Section
$ Direct Text Input for File Management Section
$ Linear Static Analysis, Database
SOL 101
$ Direct Text Input for Executive Control
CEND
TITLE = MSC.Nastran job created on 10-Oct-07 at 15:29:20
ECHO = NONE
$ Direct Text Input for Global Case Control Data
SUBCASE 1
$ Subcase name : Default
   SUBTITLE=Default
   SPC = 2
   LOAD = 2
   DISPLACEMENT(SORT1,REAL)=ALL
   SPCFORCES(SORT1,REAL)=ALL
   STRESS(SORT1,REAL,VONMISES,BILIN)=ALL
SUBCASE 2
$ Subcase name : job
   SUBTITLE=job
   SPC = 2
   LOAD = 4
   DISPLACEMENT(SORT1,REAL)=ALL
   SPCFORCES(SORT1,REAL)=ALL
   STRESS(SORT1,REAL,VONMISES,BILIN)=ALL
BEGIN BULK
PARAM    POST    -1
PARAM   PRTMAXIM YES
$ Direct Text Input for Bulk Data
$ Elements and Element Properties for region : prop
PSOLID   1       1       0
$ Pset: "prop" will be imported as: "psolid.1"
CTETRA   1       1       35      802     817     34      39      816
         40      36      37      38
CTETRA   2       1       33      1921    32      926     44      45
         46      41      42      43
CTETRA   3       1       31      30      863     1220    49      50
         51      47      48      1222
CTETRA   4       1       31      875     30      1506    54      55
         49      52      1508    53
CTETRA   5       1       31      863     802     817     51      862
         57      56      1278    816
CTETRA   6       1       979     802     34      817     59      37
         60      58      816     38
CTETRA   7       1       29      28      983     27      64      65
         66      61      62      63
CTETRA   8       1       29      26      1728    1690    70      71
         72      67      68      69
CTETRA   9       1       29      1619    1690    960     74      75
         67      73      1575    1639
CTETRA   10      1       29      1690    937     1688    67      1638
         77      76      1689    1660
CTETRA   11      1       29      960     1688    1617    73      1663
         76      78      1570    79
CTETRA   12      1       29      1688    25      1617    76      81
         82      78      79      80
CTETRA   13      1       29      1731    937     1728    83      1798
         77      72      1797    1796
CTETRA   14      1       24      27      1729    1731    86      87
         88      84      85      1808
CTETRA   15      1       24      23      1907    817     91      92
         93      89      90      1859
CTETRA   16      1       24      1730    23      1733    96      97
         91      94      1707    95
CTETRA   17      1       24      1732    25      1731    99      100
         101     84      1800    98
CTETRA   18      1       22      21      825     827     104     105
         106     102     103     826
CTETRA   19      1       20      32      19      831     110     111
         112     107     108     109
CTETRA   20      1       1915    918     1913    22      116     117
         1914    113     114     115
$ ... 1954 like lines cut
$ Referenced Material Records
$ Material Record : steel
$ Description of Material : Date: 10-Oct-07           Time: 15:27:41
MAT1     1      2.+9            .3
$ Nodes of the Entire Model
GRID     1              .0340174.0219671.0173772
GRID     2              .0018443.01749  .102159
GRID     3              .001821 .0177168.122915
GRID     4              .0010108.0175547.20668
GRID     5              .0330887.0174819.148043
GRID     6              .0016258.01749  .185656
GRID     7              .014029 .0166855.0102742
GRID     8              .0327974.0174738.0648458
GRID     9              .0330807.0174819.127205
GRID     10             .0188786.0176761.111012
GRID     11             .0185711.0176599.0486207
GRID*    12                             3.55318-4       .0176114
*       .0219322
GRID     13             .0013507.0174657.0402451
GRID     14             .0176972.0175871.0280176
GRID     15             .0330645.0174819.106384
GRID     16             .0330078.0174819.0855864
GRID     17             .0188544.017668 .152704
GRID     18             .0017471.0180477.16347
GRID     19             .0187977.0176761.0693855
GRID     20             .0188625.0176761.0901909
GRID     21             .0188786.0176761.131842
GRID     22             .0019212.0177001.143755
GRID*    23                             -7.29053-4      .0177328
*       .226126
GRID     24             .0154603.0183927.217064
GRID     25             .0338574.0178524.212241
GRID     26             .0330726.0174738.168897
GRID     27             .0182798.0175709.194808
GRID     28             .0187573.0176518.173631
GRID     29             .0329997.0174414.189807
GRID     30             .017547 -.022309.238509
GRID     31             .0176645-.003635.239036
GRID     32             .00182  .01749  .0813541
GRID     33             .0017148.01749  .0606135
GRID     34             .027908 .018326 .236527
GRID     35             .0082958.0199306.237021
GRID     36             .0181019.0191283.236774
GRID     37             .0189615.0119263.243264
GRID     38             .0189615.0119263.23286
GRID     39             .0091554.0127286.243511
GRID     40             .0091554.0127286.233106
GRID     41             -.006635.0240083.0615526
GRID     42             -.008736.0180266.0677115
GRID     43             -.006582.0240083.0719229
GRID*    44                             -3.86299-4      .0115083
*       .0667724
GRID*    45                             -3.33699-4      .0115083
*       .0771427
GRID     46             .0017674.01749  .0709838
GRID     47             .0138398-.008426.229798
GRID     48             .0137811-.017763.229535
GRID     49             .0176058-.012972.238772
GRID     50             .0137811-.017766.244254
GRID     51             .0138398-.008429.244518
GRID     52             .0213398-.008432.229798
GRID     53             .0212811-.017769.229535
GRID     54             .0213398-.008429.244518
GRID     55             .0212811-.017766.244254
GRID*    56                             .0138398        9.45655-4
*       .234114
GRID*    57                             .0138398        9.45655-4
*       .244518
GRID     58             .0175151.0055266.229192
GRID     59             .0175151.0055266.239596
GRID     60             .0264615.0119263.23286
GRID     61             .0256398.0175062.192308
GRID     62             .0185185.0176114.18422
GRID     63             .0216474.0115488.191163
GRID     64             .0258785.0175466.181719
GRID     65             .0218862.0115892.180574
GRID     66             .0290074.011484 .188662
GRID     67             .0415074.0177336.183443
GRID     68             .0415438.0177498.172988
GRID     69             .0390241.0242762.179043
GRID     70             .0330361.0174576.179352
GRID     71             .0305529.0240002.174952
GRID     72             .0305165.023984 .185407
GRID     73             .0415074.011484 .188662
GRID     74             .0352589.011484 .183443
GRID     75             .0437666.0117762.177079
GRID     76             .0415074.017734 .193813
GRID     77             .0415074.023984 .188662
$ ... 17 like lines cut
GRID*    95                             1.88945-4       .0241297
*       .230363
GRID     96             .0101254.0244597.216655
GRID     97             .0020307.0241297.221186
GRID     98             .030513 .0241895.207445
GRID     99             .0197561.0244597.222196
GRID     100            .0289546.0241895.219784
GRID     101            .0246589.0181226.214652
GRID     102            .0059682.0116134.13438
GRID     103            .0144469.0116014.128423
GRID     104            .0103999.0176881.137799
GRID     105            .0144469.0116014.138842
GRID     106            .0059682.0116134.144798
GRID     107            .0144388.0116014.08676
GRID     108            .0059176.0115083.0823416
GRID     109            .0144064.0116014.0763574
GRID     110            .0103412.0175831.0857725
GRID     111            .0103089.0175831.0753698
GRID     112            .0188301.0176761.0797882
GRID*    113                            -2.83545-4      .0116134
*       .139589
GRID     114            -.006531.0241134.144798
GRID*    115                            -2.83552-4      .0116134
*       .150008
GRID     116            -.008736.0180266.140632
GRID     117            -.008736.0180266.151052
GRID     118            -.006618.0242872.154656
GRID     119            .0018342.0178739.153613
GRID     120            .0041641.0242872.158225
GRID     121            .0042511.0241134.148368
GRID     122            .0278985.0115488.196313
GRID     123            .0216474.0115488.201581
GRID     124            .0103878.017684 .14823
GRID     125            .0103008.0178579.158087
GRID     126            .0144347.0115973.149273
GRID     127            .0058811.0117872.154656
GRID     128            .030551 .0240043.0811298
GRID     129            .0390547.0242766.0748015
GRID     130            .0415115.0240043.0844578
GRID     131            .0415115.0177543.0792581
GRID     132            .0415115.0115043.0844578
GRID     133            .0415115.0177542.0896672
GRID     134            .0352627.0115043.0896669
GRID     135            .0259351.017579 .0878886
$ ... 17 like lines cut
GRID*    153                            8.52995-4       .0175385
*       .0310887
GRID     154            .0076054.0115569.029996
GRID*    155                            -5.67872-4      .0114962
*       .0361097
GRID     156            .0095239.0175264.0341314
GRID     157            .0181341.0176235.0383191
GRID     158            .0109823.0240933.0391357
GRID     159            .0099609.0175628.0444329
GRID     160            .0105453.0240569.0288342
GRID     161            .002372 .0239962.0349479
GRID     162            .0276067.0115569.0299953
GRID     163            .0213561.0115569.0348359
GRID     164            .0213561.0115569.0244172
GRID     165            .0218164.0240569.031878
GRID     166            .0222534.0240933.0421795
GRID     167            .0254753.0180266.0386963
GRID     168            .0217931.0115933.0451374
GRID     169            .0138561.0115569.0348359
GRID     170            .0056829.0114962.0409496
GRID     171            .0188786.0176761.121427
GRID     172            .0259796.017579 .129524
GRID     173            .0235617.0241014.125046
GRID     174            .0259796.017579 .119109
GRID     175            .0306627.0240043.122727
$ ... 25 like lines cut
GRID*    201                            -3.70974-4      .0117872
*       .170273
GRID*    202                            -4.31642-4      .0115083
*       .181366
GRID     203            -.008737.0180266.171878
GRID     204            .0016865.0177688.174563
GRID     205            -.006679.0240083.176168
GRID     206            -.006618.0242872.165075
GRID     207            -.008736.0180266.16147
GRID*    208                            .0213398        9.45655-4
*       .244518
GRID*    209                            .0213398        9.45655-4
*       .234114
GRID     210            .0437663-.039473.17188
GRID     211            .0437667-.039473.161469
GRID*    212                            -3.70592-4      .0117872
*       .159866
GRID     213            .0419362.0241895.210297
GRID     214            .0385918.0242766.200235
GRID     215            .0419362.0179392.215138
GRID     216            .0437663.0117763.218034
GRID     217            .0356875.0116895.215138
GRID     218            .0419362.0116895.210297
GRID     219            .0127377.0119597.212709
GRID     220            .0175151.0055266.218773
GRID     221            .0202377.0119597.223128
GRID     222            .0294362.0116895.220716
GRID     223            .0245335.0180266.22826
GRID     224            .0327127.0119263.227281
GRID     225            .0389615.018176 .227281
GRID     226            .0308827.0180892.224384
GRID     227            .0260686.0177117.203525
GRID     228            .0259799.0244263.231927
GRID     229            .0306667.0240043.133142
GRID     230            .0306708.0240043.143561
GRID     231            .0391339.0242763.137251
GRID     232            .0330847.0174819.137624
$ ... 43 like lines cut
GRID*    276                            -3.33552-4      .0116217
*       .118751
GRID     277            -.008736.0180266.109377
GRID*    278                            -3.21888-4      .0115083
*       .108373
GRID     279            -.006582.0241217.113541
GRID     280            -.006570.0240083.103163
GRID     281            .0018326.0176034.112537
GRID     282            .0041948.0241217.117116
GRID     283            .0042064.0240083.106739
GRID     284            .0235469.0241014.104229
GRID     285            .0235388.0241014.0938181
GRID     286            .0188705.0176761.100602
GRID     287            .0126861.0241014.0903584
GRID     288            .0126942.0241014.100769
GRID     289            .0219469.0116014.138842
GRID     290            .0219347.0115973.149273
GRID     291            .0290519.0115043.146942
GRID     292            .0259837.017579 .139943
GRID     293            .0259716.017575 .150374
GRID     294            .0235657.0241014.13546
GRID     295            .005918 .0116217.12396
GRID     296            .0103498.0176965.127378
GRID     297            .0103498.0176965.116964
GRID     298            .0317263.0180266.0439634
$ ... 16 like lines cut
GRID*    315                            1.40871-4       .0176437
*       .216403
GRID     316            .0029007.0240407.211463
GRID     317            .0183221.0252286.243511
GRID     318            .0281282.0244263.243264
GRID     319            .0351573.0115002.0688869
GRID     320            .0289063.0115002.0636687
GRID     321            -.009152.018027 .243066
GRID     322            -.008735.011777 .235711
GRID     323            -.001607.0116297.230708
GRID     324            -.007857.0116297.227659
GRID     325            .0361829.0199969.0086886
GRID     326            .0311829.0262469.0086886
GRID     327            .0295163.0137469.0086886
GRID     328            .0053548.0173561.0051371
GRID     329            -.001482.017819 .0109661
GRID     330            -.001745.0242766.0067255
GRID*    331                            9.13973-5       .024069
*       .0176916
GRID     332            .0069282.0236061.0118626
GRID     333            .019522 .0111061.0051371
GRID     334            .0240232.0193263.0138257
GRID     335            .0295163.0137469.0190969
GRID     336            .019522 .0111061.0155454
GRID     337            -.002902.0117766.0073564
GRID     338            .0057719.0111061.0124935
GRID     339            -.001065.011569 .0183225
GRID     340            .0096942.024069 .0192894
GRID     341            .0165311.0236061.0134604
GRID     342            .0211887.0236061.0051371
GRID     343            .012022 .0111061.0051371
GRID     344            .0103532.0236061.0051371
GRID     345            .0175151.0055266.0104083
GRID     346            .0175151.0055266.0208167
GRID     347            .032712 .0119263.235909
GRID     348            .0389615.0181763.23591
GRID     349            .0391817.0242766.242646
GRID     350            .0441817.0180266.242646
GRID     351            .0331282.0181763.243264
$ ... 15 like lines cut
GRID*    367                            -3.85679-4      .0115083
*       .0564011
GRID     368            .0218862.0115892.170155
GRID     369            .0188058.0176599.163167
GRID     370            .0259635.0175709.1608
GRID     371            .0219347.0115973.159692
GRID     372            .0290438.0115002.167788
GRID     373            .0415438.0240002.167788
GRID     374            .0415438.0177502.162579
GRID     375            .0415438.0115002.167788
GRID     376            .0352952.0115002.162577
GRID     377            .0353033.0115043.152151
GRID     378            .0437664.0117766.156259
GRID     379            .0330807.0174779.15847
GRID     380            .0415519.0177543.152152
GRID     381            -.006679.0115083.186586
GRID*    382                            -4.31014-4      .0115083
*       .191737
GRID     383            -.008736.0180266.192668
GRID     384            -.006679.0240083.186586
GRID     385            .007896 .0115488.196314
GRID*    386                            -7.38522-4      .0115407
*       .202249
GRID     387            .0013183.0175224.196168
GRID     388            .0175151.0055266.187517
GRID     389            .0058204.0115083.176168
GRID     390            .0123847.0240488.184362
GRID     391            .0256843.0175669.0567332
GRID     392            .0217931.0115933.0555562
GRID     393            .0414063.0115002.0636687
GRID     394            .0257976.017575 .0671157
GRID     395            .0329026.0174779.0752161
GRID     396            .0281574.0116014.0711568
GRID     397            .0352625.0115043.0792572
GRID     398            .026778 -.039473.180716
GRID     399            .0269711-.039473.191261
GRID     400            .0332223-.039473.186043
GRID     401            .0330293-.039473.175498
GRID     402            .0414063.0240002.0636687
GRID     403            .0437661.0117766.0729289
GRID     404            .0414063.0177502.0688878
GRID     405            .0304458.0240002.0707595
GRID     406            .0103615.0175831.106586
$ ... 23 like lines cut
GRID*    430                            -3.33672-4      .0116217
*       .129169
GRID     431            -.006582.0241217.12396
GRID     432            .0018711.0177085.133335
GRID     433            .0175151-.013223.22056
GRID     434            .0235536.0240973.145891
GRID     435            .0415519.0115043.146942
GRID     436            .0353033.0115043.141733
GRID     437            .0437664.0117763.135423
GRID     438            .0306512.0240043.154004
GRID     439            .0415519.0240043.146942
GRID*    440                            -3.33693-4      .0115083
*       .0875509
GRID     441            -.006582.0115083.0823416
GRID     442            -.008736.0180266.0885384
GRID     443            -.006582.0240083.0823416
GRID     444            -.006570.0240083.0927443
GRID     445            .0018322.01749  .0917568
GRID     446            .004177 .0240083.0963427
GRID     447            .0041649.0240083.08594
GRID     448            .0125747.0241014.0799925
GRID     449            .0040535.0240083.0755741
GRID*    450                            -3.21554-4      .0115083
*       .0979535
GRID     451            .0059297.0115083.0927443
GRID     452            .0127177.0240973.152842
GRID     453            .0234855.0240892.166798
GRID     454            .0306432.0240002.164431
GRID     455            .0235341.0240973.156335
GRID     456            .0143862.0115892.170155
GRID     457            .0126691.0240892.163306
GRID     458            .0219469.0116014.10759
GRID     459            .005918 .0116217.113541
GRID     460            .004202 .0241217.127524
GRID     461            .0127236.0241014.12158
GRID     462            -.006570.0115083.103163
GRID     463            .0415398.0240043.105275
GRID     464            .0352911.0115043.110483
GRID     465            .0415398.0115043.105275
GRID     466            .0127236.0241014.111165
GRID     467            .0281982.0116014.112798
GRID     468            -.008737-.039473.171877
GRID     469            -.008737-.039473.182296
GRID     470            .0022537-.039473.179041
$ ... 143 like lines cut
GRID*    614                            -7.38934-4      .0115407
*       .212355
GRID     615            .0175151-.013223.104226
GRID     616            .0175151-.013223.11464
GRID     617            .0175151-.003840.109403
GRID     618            .0379753.0242766.0439637
GRID     619            .0021631-.039473.158112
GRID     620            .0357669.0137469.024675
GRID     621            .0391144.0242766.158113
GRID     622            .031726 .0180266.0338556
GRID     623            .0175151-.003845.0061133
GRID     624            .0175151-.003845.0165216
GRID     625            .0175151-.013223.156303
GRID     626            .0175151-.003841.151072
GRID     627            .0021481-.039473.126836
GRID     628            -.008737-.039473.130213
GRID     629            .0021472-.039473.116417
GRID     630            -.008738-.039473.119794
GRID     631            .0175151-.003843.192886
GRID     632            .0175151.0055266.197935
GRID     633            .0175151-.003843.0262057
GRID     634            .0437657.0117766.0233429
$ ... 67 like lines cut
GRID*    702                            -5.67757-4      .0114962
*       .0462169
GRID     703            .0175151-.022605.151072
GRID     704            .0175151.0055266.104167
GRID     705            .0352992.0115043.131314
GRID     706            .0437663.0117766.0937478
GRID     707            .0175151-.003841.182344
GRID     708            .0175151-.013221.0219107
GRID     709            .0175151-.013223.0315948
GRID     710            .0437657.0117766.0319734
GRID     711            .043766 .0117766.0420812
GRID     712            .0034457.0239962.0447679
GRID     713            .0175151-.031973.0833292
GRID     714            .0175151-.031973.0729104
GRID     715            .0175151-.003841.0469232
GRID     716            .0437656-.039473.192668
GRID     717            .0175151-.031973.239596
GRID     718            .0175151-.022605.0885709
GRID     719            .0175151-.031973.0937479
GRID     720            .0175151-.022605.0989897
GRID     721            .0175151-.013223.0625893
GRID     722            .0220322-.039473.0185441
$ ... 988 like lines cut
GRID*    1711                           -1.72523-4      .0305266
*       .013451
GRID     1712           .0190331.0305266.0166465
GRID     1713           .0033934.0305266.0296507
GRID     1714           .0055407.0305266.0492908
GRID     1715           .0259356.0305266.0357384
GRID     1716           .0276374.0305266.056012
GRID     1717           .006287 .0305266.0697941
GRID     1718           .0065098.0305266.090526
GRID     1719           .0280942.0305266.0766732
GRID     1720           .0282152.0305266.0974453
GRID     1721           .0065686.0305266.111318
GRID     1722           .006583 .0305266.132132
GRID     1723           .0282447.0305266.118249
GRID     1724           .0282528.0305266.139079
GRID     1725           .006581 .0305266.15298
GRID     1726           .0064897.0305266.173916
GRID     1727           .0282137.0305266.159965
GRID     1728           .0280332.0305266.181007
GRID     1729           .0061041.0305266.195007
GRID     1730           .0047905.0305266.216247
GRID     1731           .0271685.0305266.20265
$ ... 242 like lines cut
$ Loads for Load Case : Default
SPCADD   2       3
LOAD     2      1.      1.       3
$ Displacement Constraints of Load Set : disp
SPC1     3       123     803     THRU    815
SPC1     3       123     839     THRU    861
SPC1     3       123     1951    THRU    1973
$ Loads for Load Case : job
LOAD     4      1.      1.       3
$ Nodal Forces of Load Set : force
FORCE    3       792     0      100000.  0.     -1.      0.
FORCE    3       793     0      100000.  0.     -1.      0.
FORCE    3       879     0      100000.  0.     -1.      0.
FORCE    3       880     0      100000.  0.     -1.      0.
FORCE    3       881     0      100000.  0.     -1.      0.
FORCE    3       882     0      100000.  0.     -1.      0.
FORCE    3       883     0      100000.  0.     -1.      0.
$ Referenced Coordinate Frames
ENDDATA 0fca1fb9
